2018/qxshi/Query/input/sc_20171207_NR_11100edgeinfo.csv
tap_bus,z_bus,area,zone,circuit,type,R,X,B,Line_Q1,Line_Q2,Line_Q3,control_bus,side,transformer_final_turns_ratio,transformer_final_angle,Min_tap,Max_tap,step_size,Min_volt,Max_volt,M_P_TLPF,M_Q_TLPF,M_P_TLPF_reverse,M_Q_TLPF_reverse
1,2,1,1,1,0,0.000055,0.001198,0.078281,1.2,1.5,2,0,0,0,0,0,0,0,0,0,-14.592751,0.32251,14.60447,-0.22549
1,2,1,1,1,0,0.000065,0.001219,0.151109,1.2,1.5,2,0,0,0,0,0,0,0,0,0,-14.334721,0.34516,14.34803,-0.39901
2,3,1,1,1,0,0.000544,0.008073,0.523577,1.2,1.5,2,0,0,0,0,0,0,0,0,0,-14.40196,8.23287,14.555811,-6.94706
4,5,1,1,1,0,0.000738,0.009575,0.582413,1.2,1.5,2,0,0,0,0,0,0,0,0,0,-2.93456,1.29356,2.94092,-0.65726
4,5,1,1,1,0,0.000731,0.009318,0.596693,1.2,1.5,2,0,0,0,0,0,0,0,0,0,-3.01469,1.28762,3.02134,-0.67767
4,5,1,1,1,0,0.000759,0.009541,0.578865,1.2,1.5,2,0,0,0,0,0,0,0,0,0,-2.94409,1.3048,2.95068,-0.66112
2,6,1,1,1,0,0.000544,0.008073,0.523577,1.2,1.5,2,0,0,0,0,0,0,0,0,0,-14.43794,8.27474,14.59276,-6.97441
7,8,1,1,1,0,0.000301,0.003585,0.184517,1.2,1.5,2,0,0,0,0,0,0,0,0,0,4.5523,-0.69314,-4.54617,0.38552
7,8,1,1,1,0,0.00004,0.003585,0.183737,1.2,1.5,2,0,0,0,0,0,0,0,0,0,4.59264,-0.36104,-4.59182,0.05553
9,5,1,1,1,0,0.00022,0.003583,0.214905,1.2,1.5,2,0,0,0,0,0,0,0,0,0,6.69229,-0.55405,-6.68244,0.2834
9,5,1,1,1,0,0.00022,0.003583,0.214905,1.2,1.5,2,0,0,0,0,0,0,0,0,0,6.69229,-0.55405,-6.68244,0.2834
10,5,1,1,1,0,0.00022,0.003583,0.214905,1.2,1.5,2,0,0,0,0,0,0,0,0,0,6.36881,-0.43922,-6.35991,0.15298
10,5,1,1,1,0,0.00022,0.003583,0.214905,1.2,1.5,2,0,0,0,0,0,0,0,0,0,6.36881,-0.43922,-6.35991,0.15298
11,5,1,1,1,0,0.00006,0.001267,0.089923,1.2,1.5,2,0,0,0,0,0,0,0,0,0,2.87296,-1.39803,-2.87237,1.23055
12,11,1,1,1,0,0.00048,0.009556,0.561815,1.2,1.5,2,0,0,0,0,0,0,0,0,0,15.77505,-0.31044,-15.655291,1.57415
12,11,1,1,1,0,0.000412,0.009012,0.568609,1.2,1.5,2,0,0,0,0,0,0,0,0,0,16.729959,-0.22727,-16.61426,1.62258
12,11,1,1,1,0,0.00041,0.009021,0.570427,1.2,1.5,2,0,0,0,0,0,0,0,0,0,16.71258,-0.22495,-16.59767,1.61404
13,14,1,1,1,0,0.000765,0.011613,0.903526,1.2,1.5,2,0,0,0,0,0,0,0,0,0,-4.44262,-0.40697,4.45797,1.98599
13,14,1,1,1,0,0.001077,0.011727,0.905707,1.2,1.5,2,0,0,0,0,0,0,0,0,0,-4.37636,-0.30182,4.39747,1.84732
15,16,1,1,1,0,0.000911,0.011365,0.64438,1.2,1.5,2,0,0,0,0,0,0,0,0,0,8.6648,0.21636,-8.595901,-0.63351
15,16,1,1,1,0,0.000883,0.011163,0.664069,1.2,1.5,2,0,0,0,0,0,0,0,0,0,8.8215,0.22214,-8.75232,-0.66258
17,18,1,1,1,0,0.001844,0.010714,0.009685,1.2,1.5,2,0,0,0,0,0,0,0,0,0,0.68277,-0.08257,-0.6819,0.06813
19,20,1,1,1,0,0.000689,0.007231,0.006951,1.2,1.5,2,0,0,0,0,0,0,0,0,0,-1.09423,-0.09131,1.09506,0.08607
21,22,1,1,1,0,0.002486,0.014977,0.013378,1.2,1.5,2,0,0,0,0,0,0,0,0,0,-0.89375,0.05707,0.89571,-0.07256
23,24,1,1,1,0,0.000582,0.008027,0.491207,1.2,1.5,2,0,0,0,0,0,0,0,0,0,0.75568,0.68019,-0.75526,-0.09345
20,25,1,1,1,0,0.0015,0.0091,0.014458,1.2,1.5,2,0,0,0,0,0,0,0,0,0,-1.43994,0.13256,1.44307,-0.14263
26,25,1,1,1,0,0.003236,0.017933,0.026147,1.2,1.5,2,0,0,0,0,0,0,0,0,0,-1.10302,0.07261,1.10698,-0.10315
27,20,1,1,1,0,0.002429,0.015431,0.02063,1.2,1.5,2,0,0,0,0,0,0,0,0,0,-0.15651,0.12315,0.15662,-0.16396
28,27,1,1,1,0,0.018376,0.079203,0.075271,1.2,1.5,2,0,0,0,0,0,0,0,0,0,-0.28973,-0.08013,0.29128,-0.06399
29,30,1,1,1,0,0.002735,0.012637,0.009455,1.2,1.5,2,0,0,0,0,0,0,0,0,0,-0.47471,0.39052,0.47578,-0.40421
29,30,1,1,1,0,0.002174,0.01228,0.010813,1.2,1.5,2,0,0,0,0,0,0,0,0,0,-0.50755,0.38493,0.50846,-0.40107
29,30,1,1,1,0,0.001435,0.009735,0.012543,1.2,1.5,2,0,0,0,0,0,0,0,0,0,-0.65744,0.47015,0.65841,-0.4883
31,32,1,1,1,0,0.003371,0.021122,0.032756,1.2,1.5,2,0,0,0,0,0,0,0,0,0,-0.76958,0.1748,0.77171,-0.22709
33,30,1,1,1,0,0.001321,0.009384,0.012474,1.2,1.5,2,0,0,0,0,0,0,0,0,0,-1.31795,0.30527,1.32042,-0.31222
34,30,1,1,1,0,0.000979,0.00966,0.013727,1.2,1.5,2,0,0,0,0,0,0,0,0,0,-1.05005,-0.28545,1.05123,0.2703
34,30,1,1,1,0,0.001301,0.00966,0.012285,1.2,1.5,2,0,0,0,0,0,0,0,0,0,-1.05432,-0.24854,1.05588,0.23612
35,36,1,1,1,0,0.001396,0.020366,1.115229,1.2,1.5,2,0,0,0,0,0,0,0,0,0,-6.16674,1.36535,6.21997,0.62146
37,36,1,1,1,0,0.000241,0.003617,0.202708,1.2,1.5,2,0,0,0,0,0,0,0,0,0,-5.43419,0.01387,5.44122,-0.31936
38,39,1,1,1,0,0.004141,0.021017,0.020353,1.2,1.5,2,0,0,0,0,0,0,0,0,0,1.67161,-0.2055,-1.65996,0.22385
40,39,1,1,1,0,0.003604,0.018745,0.017711,1.2,1.5,2,0,0,0,0,0,0,0,0,0,0.46386,0.05439,-0.46307,-0.08582
40,41,1,1,1,0,0.008034,0.03782,0.036698,1.2,1.5,2,0,0,0,0,0,0,0,0,0,1.86168,-0.25693,-1.83361,0.31549
42,43,1,1,1,0,0.020236,0.092944,0.085604,1.2,1.5,2,0,0,0,0,0,0,0,0,0,-1.95885,0.41235,2.04372,-0.19131
44,38,1,1,1,0,0.010052,0.040208,0.036321,1.2,1.5,2,0,0,0,0,0,0,0,0,0,-0.52971,0.08995,0.53268,-0.15103
44,40,1,1,1,0,0.00977,0.03908,0.03737,1.2,1.5,2,0,0,0,0,0,0,0,0,0,0.11295,-0.09342,-0.1128,0.01892
45,46,1,1,1,0,0.000455,0.003124,0.015399,1.2,1.5,2,0,0,0,0,0,0,0,0,0,-0.32294,0.10356,0.32299,-0.13347
45,46,1,1,1,0,0.000448,0.00313,0.004819,1.2,1.5,2,0,0,0,0,0,0,0,0,0,-0.32272,0.11294,0.32277,-0.12204
13,47,1,1,1,0,0.000024,0.000298,0.019032,1.2,1.5,2,0,0,0,0,0,0,0,0,0,-0.92687,0.14587,0.92689,-0.1835
13,47,1,1,1,0,0.000028,0.000334,0.02194,1.2,1.5,2,0,0,0,0,0,0,0,0,0,-0.82519,0.12853,0.82521,-0.17198
48,49,1,1,1,0,0.004122,0.026788,0.048756,1.2,1.5,2,0,0,0,0,0,0,0,0,0,-0.73774,-0.02158,0.73996,-0.06292
50,51,1,1,1,0,0.002137,0.011593,0.016165,1.2,1.5,2,0,0,0,0,0,0,0,0,0,-0.19703,-0.08698,0.19713,0.05555
52,53,1,1,1,0,0.000892,0.008068,0.015955,1.2,1.5,2,0,0,0,0,0,0,0,0,0,1.66722,-0.14225,-1.66474,0.13252
52,53,1,1,1,0,0.000892,0.008068,0.015955,1.2,1.5,2,0,0,0,0,0,0,0,0,0,1.66719,-0.1424,-1.66471,0.13267
54,52,1,1,1,0,0.002396,0.011389,0.016611,1.2,1.5,2,0,0,0,0,0,0,0,0,0,-1.3284,-0.18527,1.33271,0.17248
55,56,1,1,1,0,0.001146,0.007071,0.006445,1.2,1.5,2,0,0,0,0,0,0,0,0,0,0.48885,-0.04575,-0.48857,0.03464
57,58,1,1,1,0,0.007029,0.036024,0.0363,1.2,1.5,2,0,0,0,0,0,0,0,0,0,0.66143,-0.09116,-0.6583,0.03544
57,58,1,1,1,0,0.006935,0.037856,0.034084,1.2,1.5,2,0,0,0,0,0,0,0,0,0,0.63134,-0.07914,-0.62854,0.0271
59,60,1,1,1,0,0.004953,0.03051,0.036551,1.2,1.5,2,0,0,0,0,0,0,0,0,0,-0.36319,-0.0457,0.36385,-0.02327
55,61,1,1,1,0,0.001863,0.009879,0.010743,1.2,1.5,2,0,0,0,0,0,0,0,0,0,0.1333,0.01116,-0.13327,-0.03236
55,28,1,1,1,0,0.003025,0.01535,0.014865,1.2,1.5,2,0,0,0,0,0,0,0,0,0,-0.34734,0.03879,0.34771,-0.06648
52,62,1,1,1,0,0.002535,0.013792,0.144349,1.2,1.5,2,0,0,0,0,0,0,0,0,0,1.13188,-0.08807,-1.12865,-0.18406
62,52,1,1,1,0,0.002247,0.019244,0.143443,1.2,1.5,2,0,0,0,0,0,0,0,0,0,-0.81327,-0.2256,0.81477,-0.04943
59,63,1,1,1,0,0.001629,0.009477,0.01671,1.2,1.5,2,0,0,0,0,0,0,0,0,0,-0.26753,-0.03683,0.26764,0.00419
64,59,1,1,1,0,0.002868,0.016648,0.029152,1.2,1.5,2,0,0,0,0,0,0,0,0,0,0.54129,-0.36908,-0.54011,0.31811
31,65,1,1,1,0,0.003701,0.020509,0.020904,1.2,1.5,2,0,0,0,0,0,0,0,0,0,-0.69938,-0.10375,0.7012,0.07173
66,39,1,1,1,0,0.002791,0.015578,0.055419,1.2,1.5,2,0,0,0,0,0,0,0,0,0,-0.38132,0.29808,0.38207,-0.40524
66,39,1,1,1,0,0.003399,0.016713,0.029034,1.2,1.5,2,0,0,0,0,0,0,0,0,0,-0.34608,0.30737,0.34686,-0.36184
67,68,1,1,1,0,0.025662,0.142949,0.128473,1.2,1.5,2,0,0,0,0,0,0,0,0,0,-0.84134,-0.02989,0.8603,-0.11784
69,67,1,1,1,0,0.002427,0.019021,0.034347,1.2,1.5,2,0,0,0,0,0,0,0,0,0,-0.00554,0.0313,0.00555,-0.09795
69,67,1,1,1,0,0.000543,0.021064,0.034538,1.2,1.5,2,0,0,0,0,0,0,0,0,0,-0.01096,0.02448,0.01096,-0.0915
70,71,1,1,1,0,0.002258,0.012787,0.027743,1.2,1.5,2,0,0,0,0,0,0,0,0,0,0.3087,0.09886,-0.30845,-0.1519
70,71,1,1,1,0,0.002222,0.012762,0.02825,1.2,1.5,2,0,0,0,0,0,0,0,0,0,0.30913,0.09941,-0.30888,-0.15345
72,73,1,1,1,0,0.000958,0.007471,0.013397,1.2,1.5,2,0,0,0,0,0,0,0,0,0,-0.80852,0.14707,0.80917,-0.16884
74,75,1,1,1,0,0.004602,0.025304,0.024299,1.2,1.5,2,0,0,0,0,0,0,0,0,0,0.35432,-0.23225,-0.35352,0.18898
74,76,1,1,1,0,0.001466,0.008822,0.016361,1.2,1.5,2,0,0,0,0,0,0,0,0,0,0.19609,-0.07032,-0.19603,0.03873
57,77,1,1,1,0,0.007183,0.039792,0.037697,1.2,1.5,2,0,0,0,0,0,0,0,0,0,-1.05664,0.01556,1.06476,-0.04575
78,74,1,1,1,0,0.002399,0.012966,0.01666,1.2,1.5,2,0,0,0,0,0,0,0,0,0,-1.384,-0.16101,1.38881,0.15464
79,74,1,1,1,0,0.001156,0.011779,0.024667,1.2,1.5,2,0,0,0,0,0,0,0,0,0,-1.97459,0.64953,1.97969,-0.64604
79,74,1,1,1,0,0.001111,0.01193,0.024484,1.2,1.5,2,0,0,0,0,0,0,0,0,0,-1.95382,0.63167,1.9586,-0.62843
80,72,1,1,1,0,0.001998,0.015559,0.027356,1.2,1.5,2,0,0,0,0,0,0,0,0,0,-0.11236,-0.07383,0.11239,0.01928
81,82,1,1,1,0,0.000245,0.001182,0.001501,1.2,1.5,2,0,0,0,0,0,0,0,0,0,-0.52313,0.02996,0.5232,-0.03268
83,82,1,1,1,0,0.002479,0.013556,0.015012,1.2,1.5,2,0,0,0,0,0,0,0,0,0,-1.0932,-0.01603,1.09614,0.00176
83,82,1,1,1,0,0.00245,0.01362,0.014278,1.2,1.5,2,0,0,0,0,0,0,0,0,0,-1.08862,-0.01839,1.0915,0.00554
24,13,1,1,1,0,0.000568,0.006488,0.426457,1.2,1.5,2,0,0,0,0,0,0,0,0,0,-1.8066,-0.48425,1.80847,-0.34218
24,13,1,1,1,0,0.000482,0.006543,0.407503,1.2,1.5,2,0,0,0,0,0,0,0,0,0,-1.79238,-0.48974,1.79394,-0.29913
21,84,1,1,1,0,0.001129,0.007171,0.005946,1.2,1.5,2,0,0,0,0,0,0,0,0,0,-0.94038,0.01115,0.94136,-0.01706
85,86,1,1,1,0,0.001663,0.008255,0.00838,1.2,1.5,2,0,0,0,0,0,0,0,0,0,-0.6045,0.02087,0.6051,-0.03498
87,88,1,1,1,0,0.000728,0.005592,0.008571,1.2,1.5,2,0,0,0,0,0,0,0,0,0,1.71607,0.53034,-1.71372,-0.52931
89,15,1,1,1,0,0.001796,0.029334,1.757581,1.2,1.5,2,0,0,0,0,0,0,0,0,0,7.12936,-1.19253,-7.03928,2.552
21,90,1,1,1,0,0.010027,0.060658,0.089623,1.2,1.5,2,0,0,0,0,0,0,0,0,0,-0.23022,-0.15629,0.23078,-0.02413
91,92,1,1,1,0,0.000991,0.005357,0.022532,1.2,1.5,2,0,0,0,0,0,0,0,0,0,1.12136,0.04443,-1.12011,-0.08281
93,94,1,1,1,0,0.001298,0.007455,0.040934,1.2,1.5,2,0,0,0,0,0,0,0,0,0,-0.99023,-0.01456,0.99152,-0.05863
93,94,1,1,1,0,0.00173,0.008704,0.037056,1.2,1.5,2,0,0,0,0,0,0,0,0,0,-0.84364,0.00553,0.84489,-0.0722
58,95,1,1,1,0,0.001706,0.010514,0.021951,1.2,1.5,2,0,0,0,0,0,0,0,0,0,0.23062,0.07453,-0.23052,-0.11708
58,95,1,1,1,0,0.001695,0.010514,0.021918,1.2,1.5,2,0,0,0,0,0,0,0,0,0,0.23055,0.07481,-0.23044,-0.11729
62,96,1,1,1,0,0.000697,0.003628,0.130044,1.2,1.5,2,0,0,0,0,0,0,0,0,0,0.50349,-0.28754,-0.5033,0.0284
62,97,1,1,1,0,0.000714,0.003601,0.130284,1.2,1.5,2,0,0,0,0,0,0,0,0,0,0.44277,-0.28357,-0.44261,0.02373
98,99,1,1,1,0,0.000473,0.002696,0.009684,1.2,1.5,2,0,0,0,0,0,0,0,0,0,0.07927,0.16884,-0.07925,-0.18808
98,99,1,1,1,0,0.000433,0.002722,0.0098,1.2,1.5,2,0,0,0,0,0,0,0,0,0,0.07588,0.16868,-0.07587,-0.18816
98,92,1,1,1,0,0.000485,0.0028,0.008448,1.2,1.5,2,0,0,0,0,0,0,0,0,0,-0.4457,-0.02383,0.44579,0.0075
98,92,1,1,1,0,0.000455,0.0028,0.006875,1.2,1.5,2,0,0,0,0,0,0,0,0,0,-0.44629,-0.02693,0.44638,0.01374
100,101,1,1,1,0,0.000883,0.01242,0.681292,1.2,1.5,2,0,0,0,0,0,0,0,0,0,3.35767,-0.32737,-3.34779,1.38612
100,101,1,1,1,0,0.000887,0.012501,0.691331,1.2,1.5,2,0,0,0,0,0,0,0,0,0,3.33582,-0.33951,-3.32603,1.37701
102,98,1,1,1,0,0.000575,0.005885,0.012682,1.2,1.5,2,0,0,0,0,0,0,0,0,0,-0.66057,-0.0975,0.66082,0.07479
102,98,1,1,1,0,0.000614,0.003217,0.041676,1.2,1.5,2,0,0,0,0,0,0,0,0,0,-1.20156,-0.08545,1.20245,0.00689
18,103,1,1,1,0,0.001837,0.0108,0.01004,1.2,1.5,2,0,0,0,0,0,0,0,0,0,0.37029,-0.1101,-0.37002,0.09151
18,103,1,1,1,0,0.001819,0.010698,0.009589,1.2,1.5,2,0,0,0,0,0,0,0,0,0,0.37384,-0.11057,-0.37357,0.09289
83,104,1,1,1,0,0.001619,0.009112,0.010642,1.2,1.5,2,0,0,0,0,0,0,0,0,0,1.42239,-0.0341,-1.41914,0.03098
83,104,1,1,1,0,0.001618,0.009112,0.011427,1.2,1.5,2,0,0,0,0,0,0,0,0,0,1.42241,-0.03483,-1.41916,0.03014
103,105,1,1,1,0,0.010346,0.053293,0.04977,1.2,1.5,2,0,0,0,0,0,0,0,0,0,0.17579,-0.09554,-0.17546,-0.00285
103,105,1,1,1,0,0.010147,0.051099,0.049091,1.2,1.5,2,0,0,0,0,0,0,0,0,0,0.18299,-0.09756,-0.18262,0.00061
48,27,1,1,1,0,0.016832,0.106797,0.093252,1.2,1.5,2,0,0,0,0,0,0,0,0,0,0.84801,0.14743,-0.83595,0.05661
106,107,1,1,1,0,0.005011,0.029432,0.027549,1.2,1.5,2,0,0,0,0,0,0,0,0,0,-0.25319,-0.01582,0.25351,-0.03687
1,108,1,1,1,0,0.000434,0.00627,0.358346,1.2,1.5,2,0,0,0,0,0,0,0,0,0,4.10633,-0.11696,-4.09901,-0.4949
109,110,1,1,1,0,0.000998,0.007394,0.037474,1.2,1.5,2,0,0,0,0,0,0,0,0,0,1.59179,-0.1548,-1.58919,0.10087
109,110,1,1,1,0,0.001043,0.007328,0.040264,1.2,1.5,2,0,0,0,0,0,0,0,0,0,1.60357,-0.17016,-1.6008,0.11092
111,109,1,1,1,0,0.003185,0.017703,0.048142,1.2,1.5,2,0,0,0,0,0,0,0,0,0,-1.68784,0.07715,1.69725,-0.11864
28,56,1,1,1,0,0.001396,0.011485,0.021487,1.2,1.5,2,0,0,0,0,0,0,0,0,0,0.77761,-0.06717,-0.77676,0.03141
112,113,1,1,1,0,0.011505,0.068507,0.108714,1.2,1.5,2,0,0,0,0,0,0,0,0,0,-1.67879,0.20706,1.71221,-0.22752
112,113,1,1,1,0,0.011609,0.069233,0.109603,1.2,1.5,2,0,0,0,0,0,0,0,0,0,-1.66134,0.20245,1.69436,-0.22677
83,113,1,1,1,0,0.004989,0.027905,0.026399,1.2,1.5,2,0,0,0,0,0,0,0,0,0,-0.85955,0.02799,0.86322,-0.06083
83,113,1,1,1,0,0.004854,0.02794,0.02651,1.2,1.5,2,0,0,0,0,0,0,0,0,0,-0.85947,0.02367,0.86304,-0.05672
111,114,1,1,1,0,0.00093,0.003749,0.003782,1.2,1.5,2,0,0,0,0,0,0,0,0,0,0.52504,0.06601,-0.52477,-0.07226
115,112,1,1,1,0,0.002748,0.01573,0.014127,1.2,1.5,2,0,0,0,0,0,0,0,0,0,-1.16322,0.20826,1.16705,-0.21469
116,68,1,1,1,0,0.001353,0.006781,0.013014,1.2,1.5,2,0,0,0,0,0,0,0,0,0,0.00003,0,-0.00003,-0.02608
67,117,1,1,1,0,0.01148,0.064811,0.061136,1.2,1.5,2,0,0,0,0,0,0,0,0,0,-0.81124,-0.02804,0.81904,-0.04762
118,110,1,1,1,0,0.003531,0.018996,0.019027,1.2,1.5,2,0,0,0,0,0,0,0,0,0,-0.7203,-0.01363,0.72218,-0.01327
118,110,1,1,1,0,0.003574,0.019006,0.019052,1.2,1.5,2,0,0,0,0,0,0,0,0,0,-0.71964,-0.01216,0.72155,-0.0148
101,119,1,1,1,0,0.000475,0.010749,0.602622,1.2,1.5,2,0,0,0,0,0,0,0,0,0,6.71715,-0.00783,-6.69569,1.57379
101,119,1,1,1,0,0.000488,0.01068,0.580552,1.2,1.5,2,0,0,0,0,0,0,0,0,0,6.76045,0.00846,-6.73815,1.60467
120,121,1,1,1,0,0.000791,0.003638,0.003112,1.2,1.5,2,0,0,0,0,0,0,0,0,0,-0.77101,0.02894,0.77149,-0.03288
122,102,1,1,1,0,0.002842,0.01401,0.026457,1.2,1.5,2,0,0,0,0,0,0,0,0,0,-0.47514,-0.01954,0.47579,-0.03
122,102,1,1,1,0,0.002636,0.0144,0.028439,1.2,1.5,2,0,0,0,0,0,0,0,0,0,-0.46403,-0.03052,0.46461,-0.02303
123,110,1,1,1,0,0.006218,0.03335,0.033429,1.2,1.5,2,0,0,0,0,0,0,0,0,0,-0.19455,0.16775,0.19504,-0.23073
123,110,1,1,1,0,0.006485,0.035255,0.034409,1.2,1.5,2,0,0,0,0,0,0,0,0,0,-0.18457,0.15558,0.18503,-0.22062
124,125,1,1,1,0,0.007351,0.040715,0.040505,1.2,1.5,2,0,0,0,0,0,0,0,0,0,0.39658,-0.00569,-0.39543,-0.06955
124,125,1,1,1,0,0.007416,0.040038,0.039658,1.2,1.5,2,0,0,0,0,0,0,0,0,0,0.40311,-0.0061,-0.40191,-0.06734
126,88,1,1,1,0,0.005078,0.027671,0.028163,1.2,1.5,2,0,0,0,0,0,0,0,0,0,0.05178,0.00361,-0.05176,-0.0594
124,103,1,1,1,0,0.005335,0.029816,0.031179,1.2,1.5,2,0,0,0,0,0,0,0,0,0,0.6701,-0.03677,-0.66773,-0.01289
26,19,1,1,1,0,0.000121,0.001213,0.001545,1.2,1.5,2,0,0,0,0,0,0,0,0,0,0.89823,0.16057,-0.89813,-0.16266
127,32,1,1,1,0,0.003072,0.012288,0.010308,1.2,1.5,2,0,0,0,0,0,0,0,0,0,0.33084,-0.09228,-0.33048,0.07308
128,71,1,1,1,0,0.002903,0.016152,0.020803,1.2,1.5,2,0,0,0,0,0,0,0,0,0,0.69017,-0.02825,-0.68876,-0.00477
128,71,1,1,1,0,0.002749,0.014501,0.0174,1.2,1.5,2,0,0,0,0,0,0,0,0,0,0.76727,-0.03309,-0.76562,0.00762
129,118,1,1,1,0,0.00181,0.009605,0.009809,1.2,1.5,2,0,0,0,0,0,0,0,0,0,0.19768,-0.29088,-0.19745,0.27305
129,118,1,1,1,0,0.001819,0.009604,0.0098,1.2,1.5,2,0,0,0,0,0,0,0,0,0,0.19738,-0.29102,-0.19716,0.27321
44,130,1,1,1,0,0.000931,0.003722,0.007942,1.2,1.5,2,0,0,0,0,0,0,0,0,0,0.00001,-0.016,-0.00001,0.00005
30,131,1,1,1,0,0.001533,0.008932,0.016435,1.2,1.5,2,0,0,0,0,0,0,0,0,0,1.34415,-0.40365,-1.34109,0.38919
33,131,1,1,1,0,0.000038,0.000285,0.000546,1.2,1.5,2,0,0,0,0,0,0,0,0,0,-0.81023,-1.0403,0.8103,1.03973
123,132,1,1,1,0,0.001645,0.009225,0.015595,1.2,1.5,2,0,0,0,0,0,0,0,0,0,-1.53571,-0.1378,1.53966,0.12908
133,134,1,1,1,0,0.000199,0.001089,0.000515,1.2,1.5,2,0,0,0,0,0,0,0,0,0,0.15129,-0.0135,-0.15129,0.01248
135,136,1,1,1,0,0.000378,0.00322,0.005963,1.2,1.5,2,0,0,0,0,0,0,0,0,0,1.1177,0.40015,-1.11716,-0.40733
135,136,1,1,1,0,0.00038,0.003298,0.005922,1.2,1.5,2,0,0,0,0,0,0,0,0,0,1.09059,0.39304,-1.09007,-0.40025
135,136,1,1,1,0,0.000385,0.003304,0.006138,1.2,1.5,2,0,0,0,0,0,0,0,0,0,1.089,0.39068,-1.08848,-0.39833
137,104,1,1,1,0,0.001112,0.013586,0.026577,1.2,1.5,2,0,0,0,0,0,0,0,0,0,0.77899,0.02107,-0.77832,-0.06629
4,15,1,1,1,0,0.000531,0.007651,0.421177,1.2,1.5,2,0,0,0,0,0,0,0,0,0,4.45223,-0.80094,-4.44164,0.10958
4,15,1,1,1,0,0.000552,0.007645,0.427062,1.2,1.5,2,0,0,0,0,0,0,0,0,0,4.4541,-0.81924,-4.44308,0.11617
138,139,1,1,1,0,0.005648,0.039679,0.067434,1.2,1.5,2,0,0,0,0,0,0,0,0,0,-1.88802,-0.04816,1.90901,0.06447
140,46,1,1,1,0,0.000429,0.002533,0.003746,1.2,1.5,2,0,0,0,0,0,0,0,0,0,0.98399,-0.05002,-0.98357,0.04515
140,46,1,1,1,0,0.000431,0.002654,0.003481,1.2,1.5,2,0,0,0,0,0,0,0,0,0,0.94048,-0.04128,-0.94009,0.03683
100,141,1,1,1,0,0.001194,0.017825,1.040935,1.2,1.5,2,0,0,0,0,0,0,0,0,0,-2.37518,1.27637,2.38183,-0.76686
100,141,1,1,1,0,0.001165,0.017839,1.049157,1.2,1.5,2,0,0,0,0,0,0,0,0,0,-2.37315,1.26416,2.37963,-0.7716
31,142,1,1,1,0,0.005691,0.032224,0.036095,1.2,1.5,2,0,0,0,0,0,0,0,0,0,-1.62862,0.15436,1.64386,-0.14086
31,143,1,1,1,0,0.005463,0.032346,0.035289,1.2,1.5,2,0,0,0,0,0,0,0,0,0,-0.20849,-0.09494,0.20875,0.02538
144,145,1,1,1,0,0.002814,0.020445,0.036494,1.2,1.5,2,0,0,0,0,0,0,0,0,0,1.2452,0.03239,-1.24073,-0.07102
146,147,1,1,1,0,0.000338,0.001584,0.001454,1.2,1.5,2,0,0,0,0,0,0,0,0,0,-0.29589,-0.05211,0.29592,0.04931
128,136,1,1,1,0,0.000543,0.004943,0.00843,1.2,1.5,2,0,0,0,0,0,0,0,0,0,-1.30134,-0.15765,1.30229,0.14967
128,136,1,1,1,0,0.000529,0.004936,0.008505,1.2,1.5,2,0,0,0,0,0,0,0,0,0,-1.30306,-0.16143,1.30399,0.15332
1,148,1,1,1,0,0.000887,0.012727,0.721233,1.2,1.5,2,0,0,0,0,0,0,0,0,0,-1.55902,-0.42081,1.56124,1.30057
1,148,1,1,1,0,0.00086,0.012727,0.711021,1.2,1.5,2,0,0,0,0,0,0,0,0,0,-1.5599,-0.41388,1.56206,1.31411
78,149,1,1,1,0,0.002071,0.011844,0.017981,1.2,1.5,2,0,0,0,0,0,0,0,0,0,0.01044,-0.24676,-0.01033,0.21257
1,24,1,1,1,0,0.001691,0.020206,1.191482,1.2,1.5,2,0,0,0,0,0,0,0,0,0,2.03683,-1.0369,-2.0298,1.59843
89,150,1,1,1,0,0.001237,0.021498,1.227832,1.2,1.5,2,0,0,0,0,0,0,0,0,0,5.03625,-1.061,-5.00547,2.55982
151,152,1,1,1,0,0.005044,0.021804,0.021984,1.2,1.5,2,0,0,0,0,0,0,0,0,0,-0.14796,-0.05264,0.14808,0.00893
78,153,1,1,1,0,0.00013,0.000521,0.00431,1.2,1.5,2,0,0,0,0,0,0,0,0,0,0.0016,-0.00746,-0.0016,-0.00087
154,134,1,1,1,0,0.000189,0.000945,0.000606,1.2,1.5,2,0,0,0,0,0,0,0,0,0,-1.00883,0.25113,1.00903,-0.25135
119,155,1,1,1,0,0.000274,0.005475,0.340039,1.2,1.5,2,0,0,0,0,0,0,0,0,0,5.72768,-0.78443,-5.71858,0.29025
119,155,1,1,1,0,0.000337,0.005475,0.32814,1.2,1.5,2,0,0,0,0,0,0,0,0,0,5.71847,-0.83828,-5.70727,0.36753
156,69,1,1,1,0,0.000465,0.005607,0.011536,1.2,1.5,2,0,0,0,0,0,0,0,0,0,2.13169,-0.1325,-2.12952,0.13632
156,69,1,1,1,0,0.000457,0.005639,0.011686,1.2,1.5,2,0,0,0,0,0,0,0,0,0,2.12007,-0.12815,-2.11795,0.13154
157,158,1,1,1,0,0.001291,0.011629,0.022906,1.2,1.5,2,0,0,0,0,0,0,0,0,0,0.67473,0.05497,-0.67413,-0.09446
157,158,1,1,1,0,0.001297,0.011319,0.022732,1.2,1.5,2,0,0,0,0,0,0,0,0,0,0.69321,0.05475,-0.69256,-0.09375
1,108,1,1,1,0,0.000409,0.006475,0.381582,1.2,1.5,2,0,0,0,0,0,0,0,0,0,3.97659,-0.12375,-3.97011,-0.53788
159,82,1,1,1,0,0.00055,0.00494,0.00779,1.2,1.5,2,0,0,0,0,0,0,0,0,0,1.88547,-0.09963,-1.88354,0.10118
159,82,1,1,1,0,0.000543,0.004946,0.007749,1.2,1.5,2,0,0,0,0,0,0,0,0,0,1.88351,-0.09637,-1.88161,0.09799
31,160,1,1,1,0,0.002364,0.023894,0.048071,1.2,1.5,2,0,0,0,0,0,0,0,0,0,-1.79497,-0.04322,1.80256,0.02291
31,160,1,1,1,0,0.002358,0.023885,0.04636,1.2,1.5,2,0,0,0,0,0,0,0,0,0,-1.79572,-0.04189,1.80329,0.02506
66,159,1,1,1,0,0.001182,0.009282,0.016411,1.2,1.5,2,0,0,0,0,0,0,0,0,0,-0.86809,-0.20667,0.86901,0.18073
66,159,1,1,1,0,0.001174,0.009276,0.016785,1.2,1.5,2,0,0,0,0,0,0,0,0,0,-0.86855,-0.2079,0.86947,0.18121
30,146,1,1,1,0,0.006495,0.049202,0.084323,1.2,1.5,2,0,0,0,0,0,0,0,0,0,-0.6109,-0.2998,0.61369,0.15293
161,60,1,1,1,0,0.001119,0.006268,0.00634,1.2,1.5,2,0,0,0,0,0,0,0,0,0,0.08125,-0.03417,-0.08124,0.02153
162,163,1,1,1,0,0.000352,0.002664,0.004404,1.2,1.5,2,0,0,0,0,0,0,0,0,0,0.10125,0.01908,-0.10125,-0.02791
164,142,1,1,1,0,0.001271,0.005398,0.005681,1.2,1.5,2,0,0,0,0,0,0,0,0,0,1.00523,-0.0769,-1.00396,0.07078
165,143,1,1,1,0,0.001279,0.005463,0.005506,1.2,1.5,2,0,0,0,0,0,0,0,0,0,0.20894,0.0145,-0.20888,-0.02539
158,74,1,1,1,0,0.001246,0.007526,0.013563,1.2,1.5,2,0,0,0,0,0,0,0,0,0,0.19089,0.1354,-0.19082,-0.16148
158,74,1,1,1,0,0.001286,0.007891,0.013853,1.2,1.5,2,0,0,0,0,0,0,0,0,0,0.18179,0.12876,-0.18172,-0.15542
166,167,1,1,1,0,0.000699,0.003088,0.002973,1.2,1.5,2,0,0,0,0,0,0,0,0,0,-0.49978,-0.0041,0.49996,-0.0011
168,155,1,1,1,0,0.000291,0.003037,0.165693,1.2,1.5,2,0,0,0,0,0,0,0,0,0,2.51255,0.37731,-2.51063,-0.68797
169,170,1,1,1,0,0.003935,0.022512,0.027574,1.2,1.5,2,0,0,0,0,0,0,0,0,0,-1.00409,-0.15465,1.00816,0.12289
85,171,1,1,1,0,0.001951,0.010682,0.010823,1.2,1.5,2,0,0,0,0,0,0,0,0,0,1.25558,-0.08862,-1.25255,0.08321
154,172,1,1,1,0,0.001376,0.007628,0.054383,1.2,1.5,2,0,0,0,0,0,0,0,0,0,-1.10211,0.20958,1.10385,-0.31024
126,170,1,1,1,0,0.003321,0.013285,0.024667,1.2,1.5,2,0,0,0,0,0,0,0,0,0,-1.02597,-0.19435,1.02959,0.15951
...
